/*--------------------------------*- C++ -*----------------------------------*\ 
  =========                 | 
  \      /  F ield         | OpenFOAM: The Open Source CFD Toolbox 
   \    /   O peration     | Website:  https://openfoam.org 
    \  /    A nd           | Version:  6 
     \/     M anipulation  | 
\*---------------------------------------------------------------------------*/ 
FoamFile 
{ 
    version     2.0; 
    format      ascii; 
    class       dictionary; 
    object      blockMeshDict; 
} 
// * * * * * * * * * * * * * * * * * * * * * * * * * * * * * * * * * * * * * // 

convertToMeters 1; 

vertices
(
    (0.0 0.0 0)
    (21.0 -10.0 0)
    (1.874885892508946 -10.0 0)
    (0.0 -10.0 0)
    (-10.0 0.0 0)
    (0.0 10.0 0)
    (1.874885892508946 10.0 0)
    (21.0 10.0 0)
    (21.0 1.5862429220830652 0)
    (21.0 1.486242922083065 0)
    (21.0 1.386242922083065 0)
    (0.9950029112752987 0.09987506748071545 0)
    (1.0 0.0 0)
    (1.0104783496580982 -0.09944950572246516 0)
    (0.24751211360629335 0.16570235828538737 0)
    (0.25 0.0657333109692705 0)
    (0.25 -0.0351588032392177 0)
    (0.2524878863937066 -0.13512785055533455 0)
    (-0.1 0.0 0)
    (0.0 0.0 1)
    (21.0 -10.0 1)
    (1.874885892508946 -10.0 1)
    (0.0 -10.0 1)
    (-10.0 0.0 1)
    (0.0 10.0 1)
    (1.874885892508946 10.0 1)
    (21.0 10.0 1)
    (21.0 1.5862429220830652 1)
    (21.0 1.486242922083065 1)
    (21.0 1.386242922083065 1)
    (0.9950029112752987 0.09987506748071545 1)
    (1.0 0.0 1)
    (1.0104783496580982 -0.09944950572246516 1)
    (0.24751211360629335 0.16570235828538737 1)
    (0.25 0.0657333109692705 1)
    (0.25 -0.0351588032392177 1)
    (0.2524878863937066 -0.13512785055533455 1)
    (-0.1 0.0 1)
);

blocks
(
    hex (2 1 10 13 21 20 29 32) (167 91 1) simpleGrading (16.290081292254182 57.81975517310595 57.81975517310595 16.290081292254182 0.012162813885540929 0.012162813885540929 0.012162813885540929 0.012162813885540929 1 1 1 1) 
    hex (3 2 13 17 22 21 32 36) (76 91 1) simpleGrading (0.7571988800964029 1.8905107549164595 1.8905107549164595 0.7571988800964029 0.012289969952098455 0.012162813885540929 0.012162813885540929 0.012289969952098455 1 1 1 1) 
    hex (4 3 17 18 23 22 36 37) (31 91 1) edgeGrading (0.0125 0.5 0.5 0.0125 0.012162813885540929 0.012289969952098455 0.012289969952098455 0.012162813885540929 1 1 1 1) 
    hex (4 18 14 5 23 37 33 24) (91 31 1) edgeGrading (0.012162813885540929 0.012339180143450841 0.012339180143450841 0.012162813885540929 0.0125 0.5 0.5 0.0125 1 1 1 1) 
    hex (14 11 6 5 33 30 25 24) (71 91 1) edgeGrading (1.411764945222937 0.7571988800964029 0.7571988800964029 1.411764945222937 81.04266153620921 82.21781648642946 82.21781648642946 81.04266153620921 1 1 1 1) 
    hex (11 8 7 6 30 27 26 25) (167 91 1) simpleGrading (57.81975517310595 16.290081292254182 16.290081292254182 57.81975517310595 82.21781648642946 82.21781648642946 82.21781648642946 82.21781648642946 1 1 1 1) 
    hex (12 9 8 11 31 28 27 30) (167 37 1) simpleGrading (57.81975517310595 6.081406942770463 1) 
    hex (15 12 11 14 34 31 30 33) (71 37 1) egeeGrading (0.8 1.411764945222937 1.411764945222937 0.8 6.081406942770463 6.081406942770463 6.081406942770463 6.081406942770463 1 1 1 1) 
    hex (0 15 14 18 19 34 33 37) (31 37 1) edgeGrading (2 0.5 0.5 2 6.081406942770463 6.081406942770463 6.081406942770463 6.081406942770463 1 1 1 1) 
    hex (18 17 16 0 37 36 35 19) (31 37 1) edgeGrading (0.5 2 2 0.5 0.16443563297285893 0.16443563297285893 0.16443563297285893 0.16443563297285893 1 1 1 1) 
    hex (17 13 12 16 36 32 31 35) (76 37 1) edgeGrading (1.8905107549164595 0.8 0.8 1.8905107549164595 0.16443563297285893 0.16443563297285893 0.16443563297285893 0.16443563297285893 1 1 1 1) 
    hex (13 10 9 12 32 29 28 31) (167 37 1) simpleGrading (57.81975517310595 0.16443563297285893 1) 
);

edges
(
    polyLine 11 14
    (
        (0.9940555012752987 0.09982290748071546 0)
        (0.9919456873691368 0.09971452521275705 0)
        (0.9887198239590593 0.09958628759573128 0)
        (0.9840546423997154 0.09949457051934738 0)
        (0.9774850063863227 0.09952554401064012 0)
        (0.9687351270458845 0.09974798248182487 0)
        (0.957924143488383 0.10019704591445726 0)
        (0.945269078380965 0.10089956942117605 0)
        (0.9309430506467843 0.1018793252209857 0)
        (0.9151063867548885 0.10316472423990322 0)
        (0.8978215536144226 0.10479973990196896 0)
        (0.879089496866762 0.10680430577633036 0)
        (0.8589997152609439 0.10915682293209505 0)
        (0.837708003454654 0.11182715238906675 0)
        (0.8153466292457627 0.11478821449445399 0)
        (0.7920299098439032 0.11800804858793527 0)
        (0.7678533755068363 0.12145270643251964 0)
        (0.7429055960620596 0.12507400231268267 0)
        (0.7173068401340144 0.12881178506411606 0)
        (0.6911695042774985 0.13261932031881524 0)
        (0.6645091369401955 0.13645492245080673 0)
        (0.6373511687826947 0.14022639028525383 0)
        (0.6098950377835118 0.14382395979977805 0)
        (0.5823074822548154 0.147237582625535 0)
        (0.554546717866167 0.15046470126482142 0)
        (0.526627207002824 0.15343257496904758 0)
        (0.4987428037915917 0.1560836039335925 0)
        (0.47101769883402417 0.15844073737159475 0)
        (0.4434354841444845 0.160516188850247 0)
        (0.4160377095024211 0.16227941621646877 0)
        (0.3889506110367061 0.16371895178233364 0)
        (0.3622336209363044 0.1648479389593661 0)
        (0.33589314327639425 0.1656576611605863 0)
        (0.3099982026425341 0.16612094446313397 0)
        (0.28465558758495146 0.1662352477010723 0)
        (0.25987058815300035 0.16600674103416008 0)
    )
    polyLine 30 33
    (
        (0.9940555012752987 0.09982290748071546 1)
        (0.9919456873691368 0.09971452521275705 1)
        (0.9887198239590593 0.09958628759573128 1)
        (0.9840546423997154 0.09949457051934738 1)
        (0.9774850063863227 0.09952554401064012 1)
        (0.9687351270458845 0.09974798248182487 1)
        (0.957924143488383 0.10019704591445726 1)
        (0.945269078380965 0.10089956942117605 1)
        (0.9309430506467843 0.1018793252209857 1)
        (0.9151063867548885 0.10316472423990322 1)
        (0.8978215536144226 0.10479973990196896 1)
        (0.879089496866762 0.10680430577633036 1)
        (0.8589997152609439 0.10915682293209505 1)
        (0.837708003454654 0.11182715238906675 1)
        (0.8153466292457627 0.11478821449445399 1)
        (0.7920299098439032 0.11800804858793527 1)
        (0.7678533755068363 0.12145270643251964 1)
        (0.7429055960620596 0.12507400231268267 1)
        (0.7173068401340144 0.12881178506411606 1)
        (0.6911695042774985 0.13261932031881524 1)
        (0.6645091369401955 0.13645492245080673 1)
        (0.6373511687826947 0.14022639028525383 1)
        (0.6098950377835118 0.14382395979977805 1)
        (0.5823074822548154 0.147237582625535 1)
        (0.554546717866167 0.15046470126482142 1)
        (0.526627207002824 0.15343257496904758 1)
        (0.4987428037915917 0.1560836039335925 1)
        (0.47101769883402417 0.15844073737159475 1)
        (0.4434354841444845 0.160516188850247 1)
        (0.4160377095024211 0.16227941621646877 1)
        (0.3889506110367061 0.16371895178233364 1)
        (0.3622336209363044 0.1648479389593661 1)
        (0.33589314327639425 0.1656576611605863 1)
        (0.3099982026425341 0.16612094446313397 1)
        (0.28465558758495146 0.1662352477010723 1)
        (0.25987058815300035 0.16600674103416008 1)
    )
    polyLine 14 18
    (
        (0.23560947612449634 0.1654020852454935 0)
        (0.2119911141012268 0.16438103767287368 0)
        (0.18915610968634436 0.16296997799122337 0)
        (0.16704984195573724 0.16118348282708547 0)
        (0.14560968697175586 0.15898355833297595 0)
        (0.12496483621776608 0.15635359441868033 0)
        (0.10521378025274838 0.15333240009160873 0)
        (0.08624470065852485 0.14991215390349147 0)
        (0.067988367135786 0.1460397608318823 0)
        (0.05055959793463544 0.14171100594234076 0)
        (0.03394282174345538 0.13692738634343676 0)
        (0.017875992658452716 0.13156170195107317 0)
        (0.002324192735311044 0.12547342046249316 0)
        (-0.012440758169400157 0.11868961631576894 0)
        (-0.026495008784170195 0.11113646964192321 0)
        (-0.04027130552757785 0.10238159335297425 0)
        (-0.053778620923297125 0.09199071137322207 0)
        (-0.06675772170513836 0.0795941116281191 0)
        (-0.07940192731376935 0.06387403782858926 0)
        (-0.09172038072113187 0.04118392174479351 0)
        (-0.09718280914544612 0.023452196711583943 0)
    )
    polyLine 33 37
    (
        (0.23560947612449634 0.1654020852454935 1)
        (0.2119911141012268 0.16438103767287368 1)
        (0.18915610968634436 0.16296997799122337 1)
        (0.16704984195573724 0.16118348282708547 1)
        (0.14560968697175586 0.15898355833297595 1)
        (0.12496483621776608 0.15635359441868033 1)
        (0.10521378025274838 0.15333240009160873 1)
        (0.08624470065852485 0.14991215390349147 1)
        (0.067988367135786 0.1460397608318823 1)
        (0.05055959793463544 0.14171100594234076 1)
        (0.03394282174345538 0.13692738634343676 1)
        (0.017875992658452716 0.13156170195107317 1)
        (0.002324192735311044 0.12547342046249316 1)
        (-0.012440758169400157 0.11868961631576894 1)
        (-0.026495008784170195 0.11113646964192321 1)
        (-0.04027130552757785 0.10238159335297425 1)
        (-0.053778620923297125 0.09199071137322207 1)
        (-0.06675772170513836 0.0795941116281191 1)
        (-0.07940192731376935 0.06387403782858926 1)
        (-0.09172038072113187 0.04118392174479351 1)
        (-0.09718280914544612 0.023452196711583943 1)
    )
    polyLine 18 17
    (
        (-0.06742324023957813 -0.07597755240021188 0)
        (-0.05581758227312543 -0.08597389096251193 0)
        (-0.03866259179125376 -0.09678523960926053 0)
        (-0.023876309869483945 -0.1037537828571036 0)
        (-0.009760885571821375 -0.10902293821604604 0)
        (0.004295801544007941 -0.11329459978475465 0)
        (0.01867584155680351 -0.11693056813397351 0)
        (0.03374843958112817 -0.12013663838924737 0)
        (0.04967363206797834 -0.12298553270930382 0)
        (0.06646480723234835 -0.12550505850818636 0)
        (0.08419979844483011 -0.12773373457380457 0)
        (0.1029890230887058 -0.12967788978709585 0)
        (0.12276716870048128 -0.13130489676039467 0)
        (0.14339965537877689 -0.1326206046998889 0)
        (0.16491673661357759 -0.13366456472458318 0)
        (0.18738789759448432 -0.13443826324300973 0)
        (0.2107157928526629 -0.13492361925989393 0)
        (0.23477969229006637 -0.13515180717490166 0)
    )
    polyLine 37 36
    (
        (-0.06742324023957813 -0.07597755240021188 1)
        (-0.05581758227312543 -0.08597389096251193 1)
        (-0.03866259179125376 -0.09678523960926053 1)
        (-0.023876309869483945 -0.1037537828571036 1)
        (-0.009760885571821375 -0.10902293821604604 1)
        (0.004295801544007941 -0.11329459978475465 1)
        (0.01867584155680351 -0.11693056813397351 1)
        (0.03374843958112817 -0.12013663838924737 1)
        (0.04967363206797834 -0.12298553270930382 1)
        (0.06646480723234835 -0.12550505850818636 1)
        (0.08419979844483011 -0.12773373457380457 1)
        (0.1029890230887058 -0.12967788978709585 1)
        (0.12276716870048128 -0.13130489676039467 1)
        (0.14339965537877689 -0.1326206046998889 1)
        (0.16491673661357759 -0.13366456472458318 1)
        (0.18738789759448432 -0.13443826324300973 1)
        (0.2107157928526629 -0.13492361925989393 1)
        (0.23477969229006637 -0.13515180717490166 1)
    )
    polyLine 17 13
    (
        (0.25958286966971333 -0.1351617184925673 0)
        (0.28512470171477855 -0.1349611466958608 0)
        (0.3113158104069112 -0.1345554214440928 0)
        (0.3380681245487207 -0.13397189852731256 0)
        (0.36534204951895527 -0.13323319919521484 0)
        (0.3930782893007744 -0.13234488261141636 0)
        (0.42117164375704547 -0.13131977569629247 0)
        (0.4495275831422834 -0.1301844957492566 0)
        (0.4780754409606076 -0.1289615579057177 0)
        (0.5067348318742356 -0.12766509851467742 0)
        (0.5354112017311737 -0.1263114824291838 0)
        (0.5640101506810017 -0.12491670831732314 0)
        (0.5924379482562896 -0.12349687704080527 0)
        (0.6206043479283696 -0.12206577652436183 0)
        (0.6484201796702291 -0.12063379658316813 0)
        (0.6757896132463102 -0.11920856902443298 0)
        (0.7026145641325756 -0.11780030710057217 0)
        (0.7288074216524453 -0.11641820264239616 0)
        (0.7542843992861636 -0.1150670717357444 0)
        (0.7789556456592743 -0.1137507338424142 0)
        (0.8027327084551694 -0.11247517738609088 0)
        (0.8255359360584213 -0.11124537424759101 0)
        (0.847288387131106 -0.1100648313546079 0)
        (0.8679102229092803 -0.1089372546875403 0)
        (0.8873301954690623 -0.10786803958669806 0)
        (0.9054979440061963 -0.10685873567517583 0)
        (0.9223647810427131 -0.10590585756132624 0)
        (0.9378738903949985 -0.10500755624674209 0)
        (0.9519889878527631 -0.10416306748805339 0)
        (0.9647092319597236 -0.10336618678317855 0)
        (0.9760839022163984 -0.10260372751605704 0)
        (0.9862785340712927 -0.10184536044731962 0)
        (0.9953239858385811 -0.10105360273995857 0)
        (1.0025945624725252 -0.1002996619242769 0)
        (1.0072198931267538 -0.09978119999822255 0)
        (1.0095449096580982 -0.09953711572246518 0)
    )
    polyLine 36 32
    (
        (0.25958286966971333 -0.1351617184925673 1)
        (0.28512470171477855 -0.1349611466958608 1)
        (0.3113158104069112 -0.1345554214440928 1)
        (0.3380681245487207 -0.13397189852731256 1)
        (0.36534204951895527 -0.13323319919521484 1)
        (0.3930782893007744 -0.13234488261141636 1)
        (0.42117164375704547 -0.13131977569629247 1)
        (0.4495275831422834 -0.1301844957492566 1)
        (0.4780754409606076 -0.1289615579057177 1)
        (0.5067348318742356 -0.12766509851467742 1)
        (0.5354112017311737 -0.1263114824291838 1)
        (0.5640101506810017 -0.12491670831732314 1)
        (0.5924379482562896 -0.12349687704080527 1)
        (0.6206043479283696 -0.12206577652436183 1)
        (0.6484201796702291 -0.12063379658316813 1)
        (0.6757896132463102 -0.11920856902443298 1)
        (0.7026145641325756 -0.11780030710057217 1)
        (0.7288074216524453 -0.11641820264239616 1)
        (0.7542843992861636 -0.1150670717357444 1)
        (0.7789556456592743 -0.1137507338424142 1)
        (0.8027327084551694 -0.11247517738609088 1)
        (0.8255359360584213 -0.11124537424759101 1)
        (0.847288387131106 -0.1100648313546079 1)
        (0.8679102229092803 -0.1089372546875403 1)
        (0.8873301954690623 -0.10786803958669806 1)
        (0.9054979440061963 -0.10685873567517583 1)
        (0.9223647810427131 -0.10590585756132624 1)
        (0.9378738903949985 -0.10500755624674209 1)
        (0.9519889878527631 -0.10416306748805339 1)
        (0.9647092319597236 -0.10336618678317855 1)
        (0.9760839022163984 -0.10260372751605704 1)
        (0.9862785340712927 -0.10184536044731962 1)
        (0.9953239858385811 -0.10105360273995857 1)
        (1.0025945624725252 -0.1002996619242769 1)
        (1.0072198931267538 -0.09978119999822255 1)
        (1.0095449096580982 -0.09953711572246518 1)
    )
    spline 12 15
    (
        (0.99905259 -5.216e-05 0)
        (0.9961929 -0.00019524 0)
        (0.99138013 -0.00037832 0)
        (0.9845912 -0.00050399 0)
        (0.97587596 -0.00046151 0)
        (0.96533011 -0.00019403 0)
        (0.95303206 0.00031678 0)
        (0.9390489 0.00109321 0)
        (0.92345332 0.0021602 0)
        (0.90632414 0.00355111 0)
        (0.88777298 0.00530589 0)
        (0.86794139 0.00742765 0)
        (0.84695326 0.00988506 0)
        (0.82491572 0.01264874 0)
        (0.80193895 0.01569112 0)
        (0.77813483 0.01897812 0)
        (0.75361697 0.02247127 0)
        (0.72849875 0.02611723 0)
        (0.70287517 0.02985863 0)
        (0.67684165 0.03365108 0)
        (0.65051092 0.03743952 0)
        (0.62397802 0.04112463 0)
        (0.59725986 0.04462541 0)
        (0.57039295 0.0479499 0)
        (0.54348574 0.05107831 0)
        (0.51660873 0.05393569 0)
        (0.48977448 0.05648657 0)
        (0.46302806 0.05876042 0)
        (0.43646905 0.06075914 0)
        (0.41016957 0.06245174 0)
        (0.38418189 0.06383272 0)
        (0.35857989 0.06491471 0)
        (0.33345452 0.0656874 0)
        (0.3088699 0.06612731 0)
        (0.28488022 0.0662355 0)
        (0.26156162 0.06602104 0)
    )
    spline 31 34
    (
        (0.99905259 -5.216e-05 1)
        (0.9961929 -0.00019524 1)
        (0.99138013 -0.00037832 1)
        (0.9845912 -0.00050399 1)
        (0.97587596 -0.00046151 1)
        (0.96533011 -0.00019403 1)
        (0.95303206 0.00031678 1)
        (0.9390489 0.00109321 1)
        (0.92345332 0.0021602 1)
        (0.90632414 0.00355111 1)
        (0.88777298 0.00530589 1)
        (0.86794139 0.00742765 1)
        (0.84695326 0.00988506 1)
        (0.82491572 0.01264874 1)
        (0.80193895 0.01569112 1)
        (0.77813483 0.01897812 1)
        (0.75361697 0.02247127 1)
        (0.72849875 0.02611723 1)
        (0.70287517 0.02985863 1)
        (0.67684165 0.03365108 1)
        (0.65051092 0.03743952 1)
        (0.62397802 0.04112463 1)
        (0.59725986 0.04462541 1)
        (0.57039295 0.0479499 1)
        (0.54348574 0.05107831 1)
        (0.51660873 0.05393569 1)
        (0.48977448 0.05648657 1)
        (0.46302806 0.05876042 1)
        (0.43646905 0.06075914 1)
        (0.41016957 0.06245174 1)
        (0.38418189 0.06383272 1)
        (0.35857989 0.06491471 1)
        (0.33345452 0.0656874 1)
        (0.3088699 0.06612731 1)
        (0.28488022 0.0662355 1)
        (0.26156162 0.06602104 1)
    )
    arc 4 5 (-7.071072502792263 7.071063120935576 0)
    arc 3 4 (-7.071072502792263 -7.071063120935576 0)
    arc 23 24 (-7.071072502792263 7.071063120935576 1)
    arc 22 23 (-7.071072502792263 -7.071063120935576 1)
    spline 15 0
    (
        (0.23899764 0.0654595 0)
        (0.21721852 0.06451776 0)
        (0.1962466 0.06322167 0)
        (0.17615221 0.06159861 0)
        (0.15700155 0.05963455 0)
        (0.13881347 0.05731716 0)
        (0.12160544 0.05468498 0)
        (0.10543815 0.05177138 0)
        (0.09035882 0.04857406 0)
        (0.07637871 0.04510162 0)
        (0.06351508 0.0414 0)
        (0.05182168 0.03749954 0)
        (0.04131927 0.03338985 0)
        (0.03197807 0.02909627 0)
        (0.02379042 0.02469935 0)
        (0.01679717 0.02026467 0)
        (0.01101253 0.01581915 0)
        (0.00641184 0.01143096 0)
        (0.00300068 0.00721885 0)
        (0.00083234 0.00331581 0)
        (1.09e-06 -0.00011239 0)
    )
    spline 34 19
    (
        (0.23899764 0.0654595 1)
        (0.21721852 0.06451776 1)
        (0.1962466 0.06322167 1)
        (0.17615221 0.06159861 1)
        (0.15700155 0.05963455 1)
        (0.13881347 0.05731716 1)
        (0.12160544 0.05468498 1)
        (0.10543815 0.05177138 1)
        (0.09035882 0.04857406 1)
        (0.07637871 0.04510162 1)
        (0.06351508 0.0414 1)
        (0.05182168 0.03749954 1)
        (0.04131927 0.03338985 1)
        (0.03197807 0.02909627 1)
        (0.02379042 0.02469935 1)
        (0.01679717 0.02026467 1)
        (0.01101253 0.01581915 1)
        (0.00641184 0.01143096 1)
        (0.00300068 0.00721885 1)
        (0.00083234 0.00331581 1)
        (1.09e-06 -0.00011239 1)
    )
    spline 0 16
    (
        (0.0009573 -0.00301111 0)
        (0.00386886 -0.00573968 0)
        (0.00841997 -0.00856261 0)
        (0.01447741 -0.01140124 0)
        (0.02198015 -0.01419411 0)
        (0.0309044 -0.01689967 0)
        (0.04121715 -0.01950424 0)
        (0.05287086 -0.021982 0)
        (0.06583016 -0.02429933 0)
        (0.08006805 -0.02643462 0)
        (0.09554275 -0.02837913 0)
        (0.11219985 -0.03010299 0)
        (0.13001668 -0.03156802 0)
        (0.1489813 -0.0327765 0)
        (0.16904297 -0.03374973 0)
        (0.19013197 -0.03447592 0)
        (0.2122158 -0.03493487 0)
        (0.23526401 -0.03515298 0)
    )
    spline 19 35
    (
        (0.0009573 -0.00301111 1)
        (0.00386886 -0.00573968 1)
        (0.00841997 -0.00856261 1)
        (0.01447741 -0.01140124 1)
        (0.02198015 -0.01419411 1)
        (0.0309044 -0.01689967 1)
        (0.04121715 -0.01950424 1)
        (0.05287086 -0.021982 1)
        (0.06583016 -0.02429933 1)
        (0.08006805 -0.02643462 1)
        (0.09554275 -0.02837913 1)
        (0.11219985 -0.03010299 1)
        (0.13001668 -0.03156802 1)
        (0.1489813 -0.0327765 1)
        (0.16904297 -0.03374973 1)
        (0.19013197 -0.03447592 1)
        (0.2122158 -0.03493487 1)
        (0.23526401 -0.03515298 1)
    )
    spline 16 12
    (
        (0.259203 -0.03516244 0)
        (0.28395141 -0.03496803 0)
        (0.30944621 -0.0345729 0)
        (0.3356208 -0.03400185 0)
        (0.36238532 -0.03327692 0)
        (0.3896525 -0.03240358 0)
        (0.41734679 -0.03139295 0)
        (0.44538663 -0.03027027 0)
        (0.47367555 -0.0290584 0)
        (0.50211759 -0.02777175 0)
        (0.53061805 -0.02642642 0)
        (0.55908049 -0.02503829 0)
        (0.58740679 -0.02362352 0)
        (0.61549674 -0.0221963 0)
        (0.64324961 -0.02076756 0)
        (0.67056835 -0.01934497 0)
        (0.69735876 -0.01793852 0)
        (0.723525 -0.01655782 0)
        (0.74897274 -0.01520824 0)
        (0.77361347 -0.01389353 0)
        (0.79736189 -0.01261951 0)
        (0.8201341 -0.01139138 0)
        (0.84184947 -0.01021285 0)
        (0.86243222 -0.00908741 0)
        (0.88180889 -0.00802058 0)
        (0.89990613 -0.0070152 0)
        (0.91665655 -0.00606891 0)
        (0.9320015 -0.00518013 0)
        (0.94588524 -0.00434952 0)
        (0.95825515 -0.00357468 0)
        (0.96906552 -0.00285032 0)
        (0.97827709 -0.00216599 0)
        (0.9858769 -0.00150084 0)
        (0.99189484 -0.00087373 0)
        (0.99632377 -0.0003766 0)
        (0.99906656 -8.761e-05 0)
    )
    spline 35 31
    (
        (0.259203 -0.03516244 1)
        (0.28395141 -0.03496803 1)
        (0.30944621 -0.0345729 1)
        (0.3356208 -0.03400185 1)
        (0.36238532 -0.03327692 1)
        (0.3896525 -0.03240358 1)
        (0.41734679 -0.03139295 1)
        (0.44538663 -0.03027027 1)
        (0.47367555 -0.0290584 1)
        (0.50211759 -0.02777175 1)
        (0.53061805 -0.02642642 1)
        (0.55908049 -0.02503829 1)
        (0.58740679 -0.02362352 1)
        (0.61549674 -0.0221963 1)
        (0.64324961 -0.02076756 1)
        (0.67056835 -0.01934497 1)
        (0.69735876 -0.01793852 1)
        (0.723525 -0.01655782 1)
        (0.74897274 -0.01520824 1)
        (0.77361347 -0.01389353 1)
        (0.79736189 -0.01261951 1)
        (0.8201341 -0.01139138 1)
        (0.84184947 -0.01021285 1)
        (0.86243222 -0.00908741 1)
        (0.88180889 -0.00802058 1)
        (0.89990613 -0.0070152 1)
        (0.91665655 -0.00606891 1)
        (0.9320015 -0.00518013 1)
        (0.94588524 -0.00434952 1)
        (0.95825515 -0.00357468 1)
        (0.96906552 -0.00285032 1)
        (0.97827709 -0.00216599 1)
        (0.9858769 -0.00150084 1)
        (0.99189484 -0.00087373 1)
        (0.99632377 -0.0003766 1)
        (0.99906656 -8.761e-05 1)
    )
);

boundary
(
    frontAndBack
    {
        type empty;
        faces
        (
          (1 2 13 10)
          (2 3 17 13)
          (3 4 18 17)
          (18 4 5 14)
          (11 14 5 6)
          (8 11 6 7)
          (9 12 11 8)
          (12 15 14 11)
          (0 18 14 15)
          (17 18 0 16)
          (13 17 16 12)
          (10 13 12 9)
          (21 20 29 32)
          (22 21 32 36)
          (23 22 36 37)
          (23 37 33 24)
          (33 30 25 24)
          (30 27 26 25)
          (31 28 27 30)
          (34 31 30 33)
          (37 19 34 33)
          (37 36 35 19)
          (36 32 31 35)
          (32 29 28 31)
         );
     }
    farfield
    {
        type patch;
        faces
        (
          (4 23 24 5)
          (5 24 25 6)
          (6 25 26 7)
          (27 8 7 26)
          (28 9 8 27)
          (29 10 9 28)
          (20 1 10 29)
          (21 2 1 20)
          (22 3 2 21)
          (23 4 3 22)
         );
     }
    airfoil
    {
        type wall;
        faces
        (
          (34 15 12 31)
          (19 0 15 34)
          (0 19 35 16)
          (16 35 31 12)
         );
     }
);
